<?xml version="1.0" encoding="utf-8"?>
<merge xmlns:android="http://schemas.android.com/apk/res/android"
       xmlns:app="http://schemas.android.com/apk/res-auto">


    <FrameLayout
        android:id="@+id/drawer_account_add"
        android:layout_width="wrap_content"
        android:layout_height="wrap_content"
        android:layout_marginBottom="@dimen/spacing_large">

        <net.egordmitriev.watchall.ui.widgets.CircleImageView
            android:layout_width="76dp"
            android:layout_height="76dp"
            android:background="@drawable/profile_circle"
            app:civ_bg_tint="#455A64"/>

        <ImageView
            android:layout_width="42dp"
            android:layout_height="42dp"
            android:src="@drawable/ic_add"
            android:layout_gravity="center"/>
    </FrameLayout>

    <TextView
        android:layout_width="wrap_content"
        android:layout_height="wrap_content"
        android:text="@string/text_add_account"
        android:textAppearance="@style/TextAppearance.AppCompat.Body1"
        android:textStyle="bold"/>
</merge>